STOPSTICKS
COMEHITHER
NIGHTNIGHT
LETTERBOMB
PLEASANCES
MARVELLOUS
SPACESHOTS
VISIONLESS
BINARYTREE
PENTIUMIII
MOPEAROUND
MOTORMOUTH
HOUSEGUEST
HAVEAROUND
MANAGEABLY
LETSBOOGIE
SUBWAYFARE
HIDDENCOST
BITTERSART
SCHEMEARCH
PANFORGOLD
MAUSOLEUMS
RUSHINGOFF
UNGENIALLY
MANNERNAME
COTTONRUSH
GOODANDBAD
OFFROADING
ASEXPECTED
EXHUSBANDS
DAISYCHAIN
SLACKENSUP
INDIAMETER
DINNERDATE
TOTALBLANK
METALEPSIS
PRECLUDING
LETOFFEASY
REARFACING
TIMECLOCKS
DRYGULCHED
CONNIPTION
SLIDINGFIT
SILLYGOOSE
IGUANAEGGS
LAMEEXCUSE
ILLUSTRATE
HAMMERFEST
TELEMACHUS
POWERMOWER
BROBDIGNAG
AFTERIMAGE
TUSKALOOSA
STRAITENED
FROSTYBREW
VINDICATES
NOTRELATED
RENOMINATE
EVIDENCING
EMANCIPATE
STATICALLY
SOSSOAPPAD
TACOSALSAS
CROSSINDEX
AUCTIONING
EMENDATORY
DRAWAHEART
HIPSOCKETS
HUFFINGTON
STEAKKNIFE
BALINGHOOK
BATTERYCAP
IMPROVISER
BEREFORMED
NHLPLAYERS
BUTTSHEADS
DIGITALCAM
SAPERSTEIN
COEQUALITY
SOFTBALLAD
FOUROCLOCK
HIPPARCHUS
ROADDEBRIS
LETSITRIDE
COVERSONGS
RISINGSTAR
INSTILLING
POPPEDOPEN
DATAPACKET
MUSICSTORE
OFFICEMATE
SPIKEJONES
ITALIANART
MONOGAMIES
OPENTABLES
WRITEAPOEM
STOCKPOWER
EMPATHISES
LILYMILTON
BLACKWELLS
MOTORTRUCK
THESTEWARD
UXORICIDAL
HAPPENUPON
MONARDELLA
SCARYMOVIE
LYOPHILISE
ANSERANSER
HEARINGOUT
TOUGHGOING
MEMORYBANK
UNWELCOMED
TRAPSHOOTS
COSTPRICES
MUCHBETTER
ADMITTEDLY
FOREQUOTED
FIRSTDATES
TAROTCARDS
PRATINCOLE
HANCOCKITE
MEDIUMTERM
JAYACOVONE
LETSPLAYER
INVITEDOUT
FEELUNEASY
NHLGOALIES
CALLINSICK
DECIMATING
VACANTNESS
DROPAVERSE
UPINTHEAIR
FANATICISM
ROTARYFILE
PLAINCRAZY
LEADIMAGES
AMASESSION
DAMINOZIDE
BRIANORSER
RESONANTLY
WADINGPOOL
EUROTIALES
SCATTERRUG
INCURVATES
LARVICIDES
REFRACTION
BARRELROOT
BESTEFFORT
TRADEDWITH
RESOLVABLE
LIEINRUINS
CHURCHWORK
TURNTHEKEY
RUNTHESHOW
THEWARPATH
FLECAINIDE
EXPEDITING
BROKENNECK
ONTHEWHOLE
MOTHORCHID
GRABSASEAT
PRICINGOUT
SIDECRUNCH
EARNEDRUNS
MISMANAGES
SMOKEDMETH
PROFESSION
SILVERCORD
INFLUNCING
TROOSEVELT
NOISEMUSIC
HARMONISER
DECADENCES
HAZMATTEAM
BILLINGOUT
AUTUMNTIME
MADETOOBEY
DUERESPECT
STICKYBACK
HIGHOCTANE
REMODIFIES
TROOPSURGE
PUNISHABLY
DENNISYOST
ONTHESWARM
ROBERTGRAY
PLAYBUTTON
MEGALITHIC
ANSWERWORD
MAJORINGIN
CARTESIANS
LESSERBEAR
NOMDEPLUME
THEETERNAL
COSTLITTLE
UNRAVELING
HIGHINERGY
BYMARRIAGE
MENTALLINK
ARMEDFORCE
MEDIUMWELL
TWELVETONE
LOUISVILLE
BITTERALES
CHORDSHAPE
JUSTTHETIP
INBROOKLYN
BIOGRAPHER
WHISTDRIVE
AGATECAMEO
AGENDABOOK
JAYSHULLAH
APITHERAPY
DROWNEDRAT
LASSITUDES
UNTIEAKNOT
SHORTNOSED
WINGCOLLAR
DOWNOURWAY
BIRTHSITES
ASTROMETER
ROTTENHAND
EPIDENDRON
PARADEREST
TRIBALNAME
PORTOBELLO
EMBATTLING
DULLMOMENT
WHITETOWER
CHAMBERTIN
ULTRABASIC
HEARTHSIDE
PRINTREADY
BLUEAVENUE
SPIKEDHAIR
WONTFOOLME
SYSTEMWIDE
SOURPICKLE
PREHENSILE
PUBLICLAND
SUGARMILLS
MONOPOLIST
TREATSWELL
SNOWYEGRET
CHILLWILLS
TSKHINVALI
SCRIPTGIRL
CANVASDUCK
THEKREMLIN
FACEBOOKED
ABOUNDEDIN
SPACEBEING
HAVINGTOGO
RUNDEFENSE
HERDOFCOWS
MANOEUVRED
LOVEBALLAD
LASERMAZES
PERQUISITE
LEGERITIES
SAILMAKERS
PACIFICISM
DARKKNIGHT
MAKESWORSE
EMENDATION
BABYFROCKS
BOOBYPRIZE
NEWSSTYLES
POINTYTOED
FASTWORKER
BROWNSWISS
SETOFCLUBS
LOINOFLAMB
HELENREDDY
SELDOMSEEN
TRAILGUIDE
FREEAGENTS
MONASTICAL
PASTORALLY
INSISTENCY
AQUAPONICS
CHOKECHAIN
BATTEDAWAY
COGNISANCE
PROVINGOUT
UNCLEFUCKA
TAKEACLASS
HILDASOLIS
CHACHACHAS
SCARYSPICE
KANGOLCAPS
TIRECHANGE
POUNDITOUT
TWENTYFOLD
SCOOPEDOUT
RHOMBIFORM
BLACKRHINO
TRIGGERING
FOIEDEVEAU
HELMETHITS
VIVENLEIGH
CURLYQUOTE
MANUMITTED
UNAVAILING
ECOANXIETY
GREATLAKES
FASTMOTION
CUSTOMISED
BUCKLELESS
NATURISTIC
HAMMERAWAY
MODIFIABLE
TIMEGONEBY
MENSHEALTH
JOURNEYERS
AFLATMINOR
CORNETTIST
WITCHHAZEL
INFOSTRADA
AETIOLOGIC
SOLICITOUS
RESERVEDLY
KITKATCLUB
BLACKBERRY
ZIAMAHMOOD
ZOEKRAVITZ
NEEDASHAVE
FORTHEDOGS
PARISIENNE
CORKPULLER
OFFICIANTS
TENDERLOIN
WINDDRIVEN
BRAMBLIEST
THICKCOATS
DERISORILY
GANGAROUND
CARPOSPORE
DAUGAVPILS
FIDDLEWITH
WHALERIDER
FUNERATION
CASHMARKET
VIRTUALIST
WORKINGOUT
GERMICIDES
OVENSHAPED
DETONATIVE
SIGNSYSTEM
SHELLPROOF
SPEAKUPFOR
RISKAVERSE
ARTHRALGIC
NATOMEMBER
NOSUCHLUCK
HODCARRIER
ELIMINATOR
CHUPACHUPS
TYTREADWAY
BOWLATHONS
TOUCHSTONE
LOOKIELOOS
FONZARELLI
COINKYDINK
TRAPLIGHTS
SOUSAMARCH
SETASUNDER
STONEROSES
BREADBLIPS
FEELSDIZZY
GOLDRECORD
BODYLOTION
MEETBOLDLY
BOWERBIRDS
BOOKMAKERS
HANGSONEON
MADELOVETO
BLANKSHELL
MMMDCCLXIV
BOLLIXEDUP
SCOTCHNEAT
TERATOLOGY
CBSNETWORK
TEXSCHRAMM
MECHANIZED
NIGHTSCAPE
WOOLSHIRTS
NEOLOGIZES
GERMANBAND
EXCITINGER
SUBLIMATED
RIVERSIDER
REPAINTING
TALEBEARER
GEORGETTES
EGGFLIPPER
EARLYTRIES
FOUNDMONEY
NEANDERTAL
MATCHBOOKS
SQUIDLARVA
GENEFAMILY
CATSCRADLE
TIEDINWITH
SOUPCOURSE
PINKHEARTS
BAGGAGETAG
KITTIWAKES
AMPHIBRACH
VOLUMEFOUR
JOENUXHALL
FLYCASTING
MULTICOLOR
MURPHYBEDS
ARCBOUTANT
CHINTZIEST
PTEROCARYA
PITILESSLY
PULLULATES
STATIONING
HAMMERHEAD
SNAPDRAGON
WHEATSTRAW
MOONRAKERS
FOOTBALLER
UNPLAYABLE
MICTURATES
INDOORCATS
SELFDRIVEN
GIVINGASAY
BEFORETIME
HIPHOPDUOS
ROWSASHORE
EATSATHOME
MMDCCXXVII
SAVAGENESS
EDFIGUEROA
NIPTHROUGH
THERASCALS
TROPHYKIDS
LITTLEFOOT
SMOOTHBARK
ENTRENCHIN
CHLOROPHYL
SILENTFALL
UNGAINLIER
PROKAYOTAE
10THDOCTOR
GIANTSTEPS
HIGHCOLLAR
SINGLEKNIT
IANZIERING
UGLYCRYING
CONFORMITY
PROSTITUTE
LESNATCHEZ
SHAREWARES
PLATEMAKER
SLAPTONGUE
GLIALCELLS
DISCOPARTY
PEASOUPFOG
ANTIPOISON
OSTRACISES
HEMIPLEGIA
AMBULACRAL
CALLNUMBER
OVERHEATED
ILLUSIONED
KIRKGIBSON
TVSCHEDULE
RECAULKING
SKITTISHLY
SUBJECTIVE
PUBCRAWLED
STATETRIAL
ABKHAZIANS
WATERPARKS
LIAISEWITH
COERCIVELY
TOSSESDOWN
GOODQUEENS
SETSATEASE
FAITMAISON
WATERSTOPS
KOOPALINGS
AWAYJERSEY
STRIFETORN
BREADLINES
STARTSWORK
BEFOREMATH
SIXTYYEARS
DATEBACKTO
SOREWINNER
DITCHSPADE
LYMPHEDEMA
OVERTHEWAY
RIPROARING
LOSTGROUND
HOBBLINGLY
THEWITNESS
TYRRHENIAN
ARGENTEUIL
DRESSSTYLE
BONNIELASS
TESTSCORES
CAKESLICER
ORALHEALTH
FLEURDELYS
SELFGIVING
BODEGACATS
DVDFORMATS
BUTISITART
AMPHOTERIC
FLYCONTACT
SNEAKABOUT
SUSHIBOATS
WAFTINGOUT
CORRUPTION
BREATHABLE
SENIORPASS
SHROVETIDE
INOCULATES
FOREGROUND
PREENGAGED
LAYWITNESS
SCOTCHPINE
BRAINGAMES
OPENSTANCE
TALKSSMACK
VESTMENTED
UNSURFACED
HOMESEEKER
FALLFREELY
NONIONISED
CULTLEADER
ANASTATICA
CENTERINGS
LEGALTITLE
BOOTLEGGED
BODYSCRUBS
DRAWSCLOSE
COLOROFLAW
THEVATICAN
SHORTBLOCK
LIVEEVENTS
MAILBOXING
BITUMINISE
MRFOOTBALL
NATATORIAL
INTHEFRONT
MTPINATUBO
ENDINSMOKE
TABLEGRAPE
MRNOVEMBER
FUNNYSTUFF
YOGURTBARS
MINORPOINT
CALLICEBUS
TWIRLYBIRD
TINSELLING
OVERCASUAL
MOVEBEHIND
BLOODGUILT
BAYERISCHE
MILKBOTTLE
ARMYGROUPS
HOTNUMBERS
GLENNBEALL
CHANNELLER
BINAURALLY
THREECOINS
EXCELLENCY
NORESPONSE
STOCKINGUP
BELOWBOARD
EDDIEPLANK
CONTENTING
BANGAGAVEL
LETTERCARD
BOYTROUBLE
ROSMARINUS
NAMOIRIVER
MMDCCLXVII
BONGODRUMS
LUMBERMANS
HADATINEAR
PUBLICTILL
FREIGHTBOX
SUBSTANCES
POLARISING
COLDCEREAL
TURNROUNDS
ASTEROIDAL
KIBBITZING
THEOUTDOOR
COMMUNITYS
CASHEWMILK
VENAERENIS
SOLSTITIAL
SAYYIDQUTB
FOLLOWEDUP
BREASTLIFT
EPHEMERALS
FASHIONING
STATIONERY
CALLEDROLL
POINSETTIA
TRENTONIAN
FDRLIBRARY
IMBRICATES
NOWSHOWING
EASTINDIAN
NAUGHTYBOY
PORTANUOVA
THELETTERH
SPITSBLOOD
WARONDRUGS
KOLKWITZIA
PTAMEETING
CITYPIGEON
FREDMERKLE
FOSSILIZES
CONSONANTS
ILLPROVEIT
GENEUPSHAW
STAGEDOORS
CONCENTRED
ETIQUETTES
GETUPNERVE
KIDDIEPARK
IOVERSLEPT
LOOKASKANT
COINSILVER
IMPLORABLE
MISBELIEFS
EUROVISION
STEAKHOUSE
IMNOTSORRY
STARTINGIN
JOHNNYKEMP
SILVERSTAR
MESENCHYME
BOBMATHIAS
MISOGAMIST
CENTAURIUM
GLOSSPAINT
RESONATING
HEIGHTENER
STATEAIDED
PEACEBELTS
TRICHOPLAX
BLACKSTORM
JAILBROKEN
COUNCILORS
APPLEPRESS
SELFIMAGES
MODERNWHIG
GLASSPIPES
SECOTIALES
THEGERMANS
SIRGERAINT
FINISHESUP
PASSORPLAY
RANAFOULOF
ENTEROBIUS
THEWARGAME
HIGHREGARD
QUADRUPLEX
NOMOPHOBIA
PODIATRIES
BIRDPROOFS
SPACINGOUT
FRANCHISED
TUNNELINGS
FARTFETISH
FOREFINGER
SPRITELIKE
REQUIESCAT
BATTLESITE
FOURTHDECK
COXEYSARMY
ENSIGNSHIP
PIANOBENCH
DMCLEIBNIZ
SECTARIANS
VONKARAJAN
STARTREKII
BULKMAILER
ICANSEEYOU
BRANDNAMES
THUMBHOLES
GROWNWRONG
HONOURABLY
READYTOEAT
ONTOLOGIST
IWONDERWHY
AUTOCLAVED
SHRUNKFROM
CYBERSTALK
BALLETMOVE
PIANOHINGE
SUPERBOWLS
EGGPOUCHES
LYCOPERDON
OPENFLAMES
PLANTFIBER
STEPLIVELY
HOLDINGOUT
COOTIEPIES
EROTICISMS
KLANSWOMAN
ITSOURTURN
SCHONBRUNN
DOGFANCIER
CSINEWYORK
TOREINHALF
SUPERIORTO
FLATOUTWAR
RELETTERED
ATTACHESTO
PARENTLESS
DEHYDRATED
TILTMETERS
LOBSTERBIB
UNAIDEDEYE
FALSECARDS
MANEUVERER
PASTCURFEW
TESTACEOUS
BACKPADDLE
DRINKINGIN
LANDINGNET
BLITZSTEIN
DEERSLAYER
WHIRLWINDS
TITTATTOES
LEADGUITAR
EXCUSENOTE
CHIPRUNNER
CHIPPEDICE
SQUAREFOOT
INNAMORATI
GAFFRIGGED
PROMQUEENS
ANDSTRIPES
TABLESUGAR
FASTENDOWN
SENTRYGUNS
COMPENSATE
CREEPINGUP
SERVINGMAN
PERCUSSING
JANEMARPLE
STARCHEDUP
TIEBREAKER
CORKJACKET
WASTESTIME
HAPPYHOURS
PERFORATOR
SINGULARLY
UNEXCLUDED
IODIZATION
SINOFPRIDE
ASTRINGING
KINGCOTTON
CATECHESIS
THRIVEWITH
HORNRIMMED
UNMENACING
SHOGUNATES
ESKIMOKISS
OSCARNUNEZ
BIOGRAPHIC
ANKLEGUARD
ATTHEPLAZA
TOLSTOYIST
BECOMEREAL
OZONEHOLES
ASIANTIGER
DEEPROOTED
COMMUNICAT
EPINEPHRIN
COCKYLEEKY
ADMONITION
AMPHIMIXIS
GENERALITY
ANDTHESAME
QUICKSANDS
MMCLXXVIII
ENCEPHALIC
PORNPARODY
MIDEASTERN
MERGESONTO
POLITIFACT
BRINGASUIT
FACTIOUSLY
BADFEELING
UNHAMPERED
IMMORALIST
WUTANGCLAN
EXXONMOBIL
STAGGEROFF
KAUNAKAKAI
CLAMORSFOR
SWEETSTUFF
ULLOASRING
MMCCCXCIII
THREEHORNS
ROTUNDNESS
MOUTHORGAN
SWEETBIRCH
NAMECHANGE
TVCHANNELS
DEPOPULATE
OILMAGNATE
GUTTERPUNK
CARCARRIER
YOUREMUTED
STAYATHOME
ENOCHARDEN
ANALGESICS
WHITESTORK
DOGLEGHOLE
WOLFWHELPS
SPHINGIDAE
CUTTINGOUT
BANKLETTER
POINTWOMAN
LOCKSCREEN
BABYFATHER
STEINBECKS
LIFEGUARDS
RADISHROSE
PREPOSSESS
UNSTEPPING
QUICKENING
HINDENBURG
IMNOTPICKY
SCARFRINGS
EQUANIMOUS
HAREFOOTED
TIMEENOUGH
NOPROBLEMS
INVARIANTS
PAPERTAPES
HAUTEMONDE
BLACKDWARF
PICKLECHIP
REHOISTING
FOSTERCARE
MLBPLAYERS
POTATORACE
ACOOKIEJAR
SQUEEINGAT
BARTENDING
BESPATTERS
AZTECRUINS
MUTILATION
THATISSICK
ATMPINCODE
COOLINGFAN
MOCKAZALIA
TRANSWOMAN
FOOTMODELS
SEPIATONES
ENFANTGATE
THESLAMMER
DANCINFOOL
KKKKNIGHTS
AUTODIALED
DAVEYLOPES
PURPLESAGE
DINNERGOWN
BACKBOILER
STATICLINE
BEEKEEPING
TANSKINNED
DEATHGRIND
BATTINGOUT
GNARLYDUDE
ADVOCATORY
MDCCCXXXIV
CHELSEABUN
NEWSREPORT
WALKTHEDOG
MCALLISTER
LIVESALONE
KOOCHIEKOO
FULLHOUSES
INCULCATES
DIVAGATION
MDCCXXXIII
IMMORALIZE
CONCENTRIC
MAKELOVETO
CABARETTAX
CARDCHEATS
PENNYROYAL
BEARWITHME
DIAMONDJIM
LODERUNNER
CEPHALEXIN
PENTATONIC
CHERRYMASH
MODELHOUSE
HARDBOUGHT
FISTFIGHTS
MEDSTUDENT
SWEETDEALS
ATHABASCAN
CALLEDTIME
HORSERACER
MONEYEDMAN
SIDEQUESTS
LEMONDROPS
HARKENBACK
CAKESLICES
SUMMERSIDE
MOVIEALBUM
METACENTER
STRONGMIND
DARYLDIXON
WASNTTHERE
LENTSEASON
THINKSBEST
GONDANGWAX
GREENBACKS
ANIMALUNIT
COTTONCLUB
COTTONBOLL
RANGEROVER
MENSHEVIKS
JULIEFOUDY
SMILOGRASS
JEUNEFILLE
ENTEROTOMY
CUSSINGOUT
KEYCONCEPT
DEEPFRYING
APOLOGISTS
SERPENTINE
BALLOONIST
APARTMENTS
MYLODONTID
PIZZABREAD
CONCESSIVE
PIZZAEMOJI
TAPEDELAYS
RUGBYFIVES
HELPEDHOME
BIGPAYOUTS
IMPEDANCES
BRAKESHOPS
SHEEPFARMS
SILLYFOOLS
THREEONTWO
FLOORLAMPS
LASTIHEARD
STOLEAKISS
TRAMMELING
APPLETARTS
MARVELVSDC
HOTANDCOLD
CORNFLAKES
SOPHOMORIC
HEADLINESE
VIDEOTAPED
POTATOROLL
LAMPYRIDAE
SAVOYHOTEL
SIDEOFLIFE
GROUNDRULE
SANLUISREY
VISIONTEST
SOCIALLIFE
CHECKSINTO
MOTSJUSTES
FETISHIZED
INACTIVATE
STAMPEDING
LEANNRIMES
IMPORTABLE
PLANCHETTE
TREADMILLS
UNCOMBINED
SOSOREVIEW
EVERSOMUCH
MMMLXXVIII
BONESHAKER
JUDDNELSON
LONGLISTED
DISCOSTICK
OVERSTRICT
PUNCHCARDS
LANDCAMERA
COTILLIONS
REMINISCES
KENNYMAYNE
FLAVORTOWN
